/*--------------------------------*- C++ -*----------------------------------*\ 
| =========                 |                                                |  
| \      /  F ield         | OpenFOAM: The Open Source CFD Toolbox           | 
|  \    /   O peration     | Version:  v2012                                 | 
|   \  /    A nd           | Website:  www.openfoam.com                      | 
|    \/     M anipulation  |                                                 | 
\*---------------------------------------------------------------------------*/ 
FoamFile                                                                        
{                                                                               
    version     2.0;                                                            
    format      ascii;                                                          
    class       dictionary;                                                     
    object      fvOptions;                                                      
}                                                                               
// * * * * * * * * * * * * * * * * * * * * * * * * * * * * * * * * * * * * * // 

T_source                                                                            
{                                                                               
	type            scalarCodedSource;                                                           
	selectionMode   all;                                                          
	fields          (T);                                                         
                                                                                
	// Name of the coded source                                                   
	name            T_source_2;                                                           
                                                                                
	codeInclude                                                                   
	#{                                                                            
		// Info: Include necessary libraries for calculation                        
	#};                                                                           
                                                                                
	codeCorrect                                                                   
	#{                                                                            
		// Info: Apply corrections after the equation has been solved               
	#};                                                                           
                                                                                
	codeConstrain                                                                 
	#{                                                                            
		// Info: Constrain values before the equation is solved                     
	#};                                                                           

	codeAddSup                                                                   
	#{                                                                                                                 
		const scalarField& V = mesh_.V();                                          
                                                                                          
		const volVectorField& C = mesh().C();                                      
                                                                                                                         
		scalarField& TSource= eqn.source();                                                    
                                                                             
		// Loops over each cell in the domain                                      
		forAll(TSource, cellI)                                                         
		{                                                                         
			// Gets the x component of the current cell 
			const scalar x = C[cellI].x(); 

			//Gets the y component of the current cell 
			const scalar y = C[cellI].y(); 
                                                                             
			const scalar solution_T = (2.0*M_PI*x*Foam::sin(2*M_PI*y)*Foam::cos(2*M_PI*x)*Foam::cos(2*M_PI*x*y) - 0.080000000000000002*pow(M_PI, 2)*x*Foam::cos(2*M_PI*x)*Foam::cos(2*M_PI*y)*Foam::cos(2*M_PI*x*y) + 0.080000000000000002*pow(M_PI, 2)*y*Foam::sin(2*M_PI*x)*Foam::sin(2*M_PI*y)*Foam::cos(2*M_PI*x*y) + 2.0*M_PI*y*Foam::sin(2*M_PI*y)*Foam::cos(2*M_PI*x)*Foam::cos(2*M_PI*x*y) - 2.0*M_PI*Foam::sin(2*M_PI*x)*Foam::sin(2*M_PI*y)*Foam::sin(2*M_PI*x*y) + 0.080000000000000002*pow(M_PI, 2)*Foam::sin(2*M_PI*y)*Foam::sin(2*M_PI*x*y)*Foam::cos(2*M_PI*x) + 0.040000000000000001*pow(M_PI, 2)*Foam::sin(2*M_PI*y)*Foam::sin(2*M_PI*x*y)*Foam::cos(2*M_PI*x)*(x*x) + 0.040000000000000001*pow(M_PI, 2)*Foam::sin(2*M_PI*y)*Foam::sin(2*M_PI*x*y)*Foam::cos(2*M_PI*x)*(y*y) + 2.0*M_PI*Foam::sin(2*M_PI*x*y)*Foam::cos(2*M_PI*x)*Foam::cos(2*M_PI*y)); 
                                                                            
			TSource[cellI] -= V[cellI]*(solution_T);                                                                            
		};                                                                         
	#};                                                                         
}         